ipss.test.plugin.core/testData/adpter/psse/LFModel_testV26.raw
0,100.0
  20090212163844,CASE:110408-EMSDB:DB38,CASE:081908-EMSDB:DB36, 10
VER 26   PARAMETERS INITIALIZED ON 28-Jan-2009 09:56:32 PST
 15021,'PVERDE 1', 500.00,3,    0.00, -136.05,  2,  4,1.07000,   3.1024,1,    /* [15021_PALOVRDE_500_B1] */ 
 31212,'ADLIN  1', 115.00,1,    0.00,    0.00,  1,  1,1.01273, -10.5533,1,    /* [31212_MPE     _115_B1] */ 
 31210,'ADLIN  2', 115.00,1,    0.00,    0.00,  1,  1,1.01208, -10.6009,1,    /* [31210_MPE TAP _115_B1] */ 
 31435,'ADLIN  3',  13.80,2,    0.00,    0.00,  1,  1,1.02029,  -9.2936,1,    /* [31435_GEO.ENGY_13.8_B2] */ 
 90121,'LAKEIB01',  230,  2,    0,       0,     8,  10,1.00639,-1.1697,1,/* [90121_LAKE_1_IBAA] */
 33547,'AEC 30 1', 115.00,1,    0.00,    0.00,  1,  1,0.99380,  -2.2966,1,    /* [33547_AEC_300 _115_B1] */ 
 36016,'AGLINK 1',  60.00,1,    0.00,    0.00,  1,  1,1.00994,  -5.3101,1,    /* [36016_AGRILINK_60.0_B1] */ 
 34608,'AGRICO 1',  13.80,2,    0.00,    0.00,  1,  1,1.00000,   6.5236,1,    /* [34608_AGRICO  _13.8_B1] */ 
 34606,'GATES  3',  13.80,1,    0.00,    0.00,  1,  1,0.92618,   2.4892,1,    /* [34606_GATES11T_13.8_B1] */ 
 30900,'GATES  5', 230.00,1,    0.00,    0.00,  1,  1,1.00905,   2.6763,1,    /* [30900_GATES   _230_B3] */ 
 30810,'GREGG  1', 230.00,1,    0.00,    0.00,  1,  1,0.95909,   1.7003,1,    /* [30810_GREGG   _230_B1] */   
 32252,'APLHIL 1', 115.00,2,    0.00,    0.00,  1,  1,0.98899, -11.8994,1,    /* [32252_APPLE HL_115_B1] */
   367,'MORAGA 2',  13.20,4,    0.00,    0.00,  1,  1,1.00000,   0.0000,1,    /* [33123_MRAGA 3T_13.2_N001] */
 37012,'LAKE   1', 230.00,1,    0.00,    0.00,  8, 10,1.00639,  -1.1697,1,    /* [37012_LAKE    _230_B11] */ 
   134,'BELOTA 1', 115.00,4,    0.00,    0.00,  1,  1,1.00000,   0.0000,1,    /* [33562_BELLOTA _115_N025] */ 
 34582,'ARCO   2',  70.00,1,    0.00,    0.00,  1,  1,1.03119,  -0.0253,1,    /* [34582_ARCO    _70.0_B2] */ 
 30935,'ARCO   1', 230.00,1,    0.00,    0.00,  1,  1,0.99998,   2.9900,1,    /* [30935_ARCO    _230_B1] */ 
0 / END OF BUS DATA, BEGIN LOAD DATA
 33547,' 1',1,  1,  1,    3.00,    9.54,    0.00,    0.00,    0.00,    0.00,1,   /* [EnergyConsumer_1704] */
 36016,' 1',1,  1,  1,    6.50,    3.86,    0.00,    0.00,    0.00,    0.00,1,   /* [EnergyConsumer_500] */
 32252,' 1',1,  1,  1,   12.82,    0.58,    0.00,    0.00,    0.00,    0.00,1,   /* [EnergyConsumer_1047] */
 32252,' 2',1,  1,  1,    7.50,    0.34,    0.00,    0.00,    0.00,    0.00,1,   /* [EnergyConsumer_1630] */
0 / END OF LOAD DATA, BEGIN GENERATOR DATA
31435,' 1',    8.52,    2.51,   10.00,   -6.00,1.0203,    0,100.00,0.0000,1.0000,0.0000,0.0000,1.0000,1,100.00, 9999.00,    0.00,1,1.00,0,0.00,0,0.00,0,0.00,   /* [SynchronousMachine_78] */ 
34608,' 1',    0.00,    0.00,    7.50,   -4.50,1.0000,    0,100.00,0.0000,1.0000,0.0000,0.0000,1.0000,0,100.00, 9999.00,    0.00,1,1.00,0,0.00,0,0.00,0,0.00,   /* [SynchronousMachine_825] */ 
32252,' 1',    0.00,    0.00,    0.00,    0.00,0.9890,    0,100.00,0.0000,1.0000,0.0000,0.0000,1.0000,0,100.00, 9999.00,    0.00,1,1.00,0,0.00,0,0.00,0,0.00,   /* [SynchronousMachine_14081] */
  367,' 1',    0.00,    0.00,    0.00,    0.00,1.0000,    0,100.00,0.0000,1.0000,0.0000,0.0000,1.0000,0,100.00, 9999.00,    0.00,1,1.00,0,0.00,0,0.00,0,0.00,   
90121,' 1',    0.00,    0.00,    0.00,    0.00,1.0064,    0,100.00,0.0000,1.0000,0.0000,0.0000,1.0000,0,100.00, 9999.00,-1595.00,1,1.00,0,0.00,0,0.00,0,0.00,   /* [SynchronousMachine_21144] */ 
0 / END OF GENERATOR DATA, BEGIN BRANCH DATA
31212,31210,' 1',0.00392,  0.01132, 0.0015,97.8,111.7,0,0,0,0,0,0,0,1,0,1,1,0,0,0,0,0,0,/* [Compensator_1129] */
31212,31435,' 1',0,        0.266667,0,     30,30,0,1,0,0,0,0,0,1,0,1,1,0,0,0,0,0,0,/* [Transformer_21] */
90121,37012,' 1',0,0.00005,0,99999,99999,,0,0,0,0,0,0,1,0,1,1,0,0,0,0,0,0,/* [LINE_LAKE_1_IBAA ] */
34582,30935,' 1',0.002163, 0.096081,0,134.4,161.3,0,1.0616,0,0,0,0,0,1,0,1,1,0,0,0,0,0,0,/* [Transformer_151] */
0 / END OF BRANCH DATA, BEGIN TRANSFORMER ADJUSTMENT DATA
31212,31435,' 1',     0,    1.5000,    0.5100,    1.5000,    0.5100,0.00625,0,0, 0.000, 0.000,   /* [Transformer_21] */
34582,30935,' 1', 34582,    1.1462,    0.9378,    1.5000,    0.0000,0.00639,0,1, 0.000, 0.000,   /* [Transformer_151] */
0 / END OF TRANSFORMER ADJUSTMENT DATA, BEGIN AREA INTERCHANGE DATA
  1,36411, -6932.7,   1.00,'CAISO   '
  2,15021,  2510.0,   1.00,'ARIZ    '
  3,20118,   -31.3,   1.00,'CFE     '
  4,21076,   231.6,   1.00,'IMPER   '
0 / END OF AREA INTERCHANGE DATA, BEGIN TWO-TERMINAL DC TRANSMISSION LINE DATA
0 / END OF TWO-TERMINAL DC TRANSMISSION LINE DATA, BEGIN SWITCHED SHUNT DATA
34606,0,1.1000,0.9000,     0,-190.800,     1, -47.700,     1, -47.700,     1, -47.700,     1, -47.700,    /* [Compensator_386] */
30900,0,1.1000,0.9000,     0, 225.000,     1,  75.000,     1,  75.000,     1,  75.000,    /* [Compensator_511] */
30810,0,1.1000,0.9000,     0,  75.000,     1,  75.000,    /* [Compensator_603] */
0 / END OF SWITCHED SHUNT DATA, BEGIN TRANSFORMER IMPEDANCE CORRECTION DATA
0 / END OF TRANSFORMER IMPEDANCE CORRECTION DATA, BEGIN MULTI-TERMINAL DC TRANSMISSION LINE DATA
0 / END OF MULTI-TERMINAL DC TRANSMISSION LINE DATA, BEGIN MULTI-SECTION LINE GROUPING DATA
0 / END OF MULTI-SECTION LINE GROUPING DATA,  BEGIN ZONE DATA
  1,'PGAE-3  '
  2,'SCE-24  '
  3,'SDGE-2  '
  4,'ARIZ-1  '
0 / END OF ZONE DATA, BEGIN INTER-AREA TRANSFER DATA
0 / END OF INTER-AREA TRANSFER DATA, BEGIN OWNER DATA
 1,'        '
0 / END OF OWNER DATA, BEGIN FACTS CONTROL DEVICE DATA
0 / END OF FACTS CONTROL DEVICE DATA
Stop - Program terminated.
